/*--------------------------------*- C++ -*----------------------------------*\
  =========                 |
  \\      /  F ield         | OpenFOAM: The Open Source CFD Toolbox
   \\    /   O peration     | Website:  https://openfoam.org
    \\  /    A nd           | Version:  8
     \\/     M anipulation  |
\*---------------------------------------------------------------------------*/
FoamFile
{
    version     2.0;
    format      ascii;
    class       volScalarField;
    object      T;
}
// * * * * * * * * * * * * * * * * * * * * * * * * * * * * * * * * * * * * * //

dimensions      [0 0 0 0 0 0 0];

internalField   uniform 0;

boundaryField
{
    inlet
    {
        type            fixedValue;
	value		uniform 0;
    }

    outlet
    {
       type            zeroGradient;
    }
    atmosphere
    {
       type            zeroGradient;
    }

    ground
    {
        type            zeroGradient;
    }
 building
    {
        type            zeroGradient;
    }
    
   
    symmetry
    {
        type            symmetry;
    }

   source1{
         type            fixedValue;
	value		uniform 1;
    }
  source2{
          type            fixedValue;
	value		uniform 1;
    }
    
}

// ************************************************************************* //
