/*--------------------------------*- C++ -*----------------------------------*\
| =========                 |                                                 |
| \\      /  F ield         | OpenFOAM: The Open Source CFD Toolbox           |
|  \\    /   O peration     | Version:  v2006                                 |
|   \\  /    A nd           | Website:  www.openfoam.com                      |
|    \\/     M anipulation  |                                                 |
\*---------------------------------------------------------------------------*/
FoamFile
{
    version     2.0;
    format      ascii;
    class       dictionary;
    object      controlDict;
}
// * * * * * * * * * * * * * * * * * * * * * * * * * * * * * * * * * * * * * //

application     turbScalarTransportSimpleFoam ;

startFrom       latestTime;

startTime       0;

stopAt          endTime;

endTime         2000;

deltaT          1;

writeControl    timeStep;

writeInterval   100;

purgeWrite      0;

writeFormat     binary;

writePrecision  6;

writeCompression off;

timeFormat      general;

timePrecision   6;

runTimeModifiable true;

// adjustTimeStep  yes;

// maxCo           1;


    functions
{
    tTransport
    {
      type            scalarTransport;
      libs            ("solverFunctionObjects");
      resetOnStartUp  no;
      field          T;
      schemesField    U;

      fvOptions
      {

        tSource
        {
         type        scalarFixedValueConstraint;
         enabled     true;

         scalarFixedValueConstraintCoeffs
         {
           selectionMode   cellSet;
            cellSet        selectedCells;
           volumeMode      specific;

           fieldValues
           {
             T             1;
            
           }
         }
       }
        unitySource
            {
                type            scalarSemiImplicitSource;
                enabled         true;

                scalarSemiImplicitSourceCoeffs
                {
                    selectionMode   cellSet;
                    cellSet        selectedCells;
                    volumeMode      specific;
                    injectionRateSuSp
                    {
                        T           (0.024 0);
                    }
                }
            }


      }


    }

}

// ************************************************************************* //
