/*--------------------------------*- C++ -*----------------------------------*\
| =========                 |                                                 |
| \\      /  F ield         | OpenFOAM: The Open Source CFD Toolbox           |
|  \\    /   O peration     | Version:  v2012                                 |
|   \\  /    A nd           | Website:  www.openfoam.com                      |
|    \\/     M anipulation  |                                                 |
\*---------------------------------------------------------------------------*/
FoamFile
{
    version     2.0;
    format      binary;
    class       volScalarField;
    arch        "LSB;label=32;scalar=64";
    location    "0/domain";
    object      cellToRegion;
}
// * * * * * * * * * * * * * * * * * * * * * * * * * * * * * * * * * * * * * //

dimensions      [0 0 0 0 0 0 0];


internalField   uniform 0;

boundaryField
{
    inlet
    {
        type            zeroGradient;
    }
    outlet
    {
        type            zeroGradient;
    }
    symmetry
    {
        type            symmetry;
    }
    ground
    {
        type            zeroGradient;
    }
    building
    {
        type            zeroGradient;
    }
    atmosphere
    {
        type            zeroGradient;
    }
    domain_to_source1:7735
    {
        type            calculated;
        value           uniform 0;
    }
    domain_to_source2:7738
    {
        type            calculated;
        value           uniform 0;
    }
}


// ************************************************************************* //
